*Heading
 Cantilever beam tutorial
** Job name: Deform Model name: Model-1
** Generated by: Abaqus/CAE Student Edition 6.14-2
*Preprint, echo=NO, model=NO, history=NO, contact=NO
**
** PARTS
**
*Part, name=Part-1
*End Part
**  
**
** ASSEMBLY
**
*Assembly, name=Assembly
**  
*Instance, name=Part-1-1, part=Part-1
*Node
      1,       -51.25,         -10.,          25.
      2,       -51.25,           0.,          25.
      3,       -51.25,          10.,          25.
      4,       -51.25,         -10.,    16.666666
      5,       -51.25,           0.,    16.666666
      6,       -51.25,          10.,    16.666666
      7,       -51.25,         -10.,   8.33333302
      8,       -51.25,           0.,   8.33333302
      9,       -51.25,          10.,   8.33333302
     10,       -51.25,         -10.,           0.
     11,       -51.25,           0.,           0.
     12,       -51.25,          10.,           0.
     13,       -41.25,         -10.,          25.
     14,       -41.25,           0.,          25.
     15,       -41.25,          10.,          25.
     16,       -41.25,         -10.,    16.666666
     17,       -41.25,           0.,    16.666666
     18,       -41.25,          10.,    16.666666
     19,       -41.25,         -10.,   8.33333302
     20,       -41.25,           0.,   8.33333302
** ... 232 like lines cut
*Element, type=C3D8
  1,  13,  14,  17,  16,   1,   2,   5,   4
  2,  14,  15,  18,  17,   2,   3,   6,   5
  3,  16,  17,  20,  19,   4,   5,   8,   7
  4,  17,  18,  21,  20,   5,   6,   9,   8
  5,  19,  20,  23,  22,   7,   8,  11,  10
  6,  20,  21,  24,  23,   8,   9,  12,  11
  7,  25,  26,  29,  28,  13,  14,  17,  16
  8,  26,  27,  30,  29,  14,  15,  18,  17
  9,  28,  29,  32,  31,  16,  17,  20,  19
 10,  29,  30,  33,  32,  17,  18,  21,  20
 11,  31,  32,  35,  34,  19,  20,  23,  22
 12,  32,  33,  36,  35,  20,  21,  24,  23
 13,  37,  38,  41,  40,  25,  26,  29,  28
 14,  38,  39,  42,  41,  26,  27,  30,  29
 15,  40,  41,  44,  43,  28,  29,  32,  31
 16,  41,  42,  45,  44,  29,  30,  33,  32
 17,  43,  44,  47,  46,  31,  32,  35,  34
 18,  44,  45,  48,  47,  32,  33,  36,  35
 19,  49,  50,  53,  52,  37,  38,  41,  40
 20,  50,  51,  54,  53,  38,  39,  42,  41
** ... 100 like lines cut
*Nset, nset=Set-1, generate
   1,  252,    1
*Elset, elset=Set-1, generate
   1,  120,    1
** Section: BeamSection
*Solid Section, elset=Set-1, material=Steel
1.,
*End Instance
**  
*Nset, nset=Set-1, instance=Part-1-1, generate
  1,  12,   1
*Elset, elset=Set-1, instance=Part-1-1, generate
 1,  6,  1
*Elset, elset=_Surf-1_S4, internal, instance=Part-1-1, generate
   2,  120,    2
*Surface, type=ELEMENT, name=Surf-1
_Surf-1_S4, S4
*End Assembly
** 
** MATERIALS
** 
*Material, name=Steel
*Elastic
 2e+11, 0.3
** 
** BOUNDARY CONDITIONS
** 
** Name: Fixed Type: Symmetry/Antisymmetry/Encastre
*Boundary
Set-1, ENCASTRE
** ----------------------------------------------------------------
** 
** STEP: Step-1
** 
*Step, name=Step-1, nlgeom=NO
Load the top of the beam
*Static
1., 1., 1e-05, 1.
** 
** LOADS
** 
** Name: Pressure   Type: Pressure
*Dsload
Surf-1, P, 500000.
** 
** OUTPUT REQUESTS
** 
*Restart, write, frequency=0
** 
** FIELD OUTPUT: F-Output-1
** 
*Output, field, variable=PRESELECT
** 
** HISTORY OUTPUT: H-Output-1
** 
*Output, history, variable=PRESELECT
*End Step
