*Heading
 Hinge Tutorial
** Job name: PullHinge Model name: Model-1
** Generated by: Abaqus/CAE Student Edition 6.14-2
*Preprint, echo=NO, model=NO, history=NO, contact=NO
**
** PARTS
**
*Part, name=Hinge-hole
*End Part
**  
*Part, name=Hinge-solid
*End Part
**  
*Part, name=Pin
*End Part
**  
**
** ASSEMBLY
**
*Assembly, name=Assembly
**  
*Instance, name=Hinge-hole-1, part=Hinge-hole
*Node
      1, 0.00499999989, -0.0237499997, 0.0399999991
      2, 0.0250000004, -0.0237499997, 0.0399999991
      3, 0.0250000004, -0.0157500003, 0.0399999991
      4, 0.0250000004, 0.00824999996, 0.0399999991
      5, 0.0250000004, 0.0162499994, 0.0399999991
      6, 0.00499999989, 0.0162499994, 0.0399999991
      7, 0.0250000004, -0.0157500003, 0.0199999996
      8, 0.0250000004, -0.0237499997, 0.0199999996
      9, 0.00499999989, -0.0237499997, 0.0199999996
     10, 0.00499999989, 0.0162499994, 0.0199999996
     11, 0.0250000004, 0.0162499994, 0.0199999996
     12, 0.0250000004, 0.00824999996, 0.0199999996
     13, 0.00499999989, -0.0237499997,           0.
     14, 0.00499999989, 0.0162499994,           0.
     15, -0.0350000001, -0.0237499997, 0.0399999991
     16, -0.0350000001, 0.0162499994, 0.0399999991
     17, -0.0350000001, 0.0162499994,           0.
     18, -0.0350000001, -0.0237499997,           0.
     19, 0.0334852822, -0.0122352811, 0.0199999996
     20, 0.0334852822, -0.0122352811, 0.0399999991
** ... 483 like lines cut
*Element, type=C3D8R
 1, 146, 147,  28,  27, 372, 373, 181, 182
 2, 147, 145,  29,  28, 373, 371, 180, 181
 3, 147,  35,  34, 145, 373, 160, 159, 371
 4, 146,  36,  35, 147, 372, 161, 160, 373
 5, 146,  37,   1,  36, 372, 171,  45, 161
 6, 146, 148,  38,  37, 372, 374, 170, 171
 7, 148,  25,   2,  38, 374, 194,  50, 170
 8, 148,  26,   3,  25, 374, 183,  54, 194
 9, 146,  27,  26, 148, 372, 182, 183, 374
10, 149, 145,  34,  33, 375, 371, 159, 158
11, 149,  30,  29, 145, 375, 179, 180, 371
12, 149,  31,   4,  30, 375, 176,  53, 179
13, 149,  32,   5,  31, 375, 155,  42, 176
14, 149,  33,   6,  32, 375, 158,  41, 155
15, 372, 373, 181, 182, 377, 378, 186, 187
16, 373, 371, 180, 181, 378, 376, 185, 186
17, 373, 160, 159, 371, 378, 164, 163, 376
18, 372, 161, 160, 373, 377, 165, 164, 378
19, 372, 171,  45, 161, 377, 173,  46, 165
20, 372, 374, 170, 171, 377, 379, 172, 173
** ... 283 like lines cut
*Nset, nset=Set-1, generate
   1,  503,    1
*Elset, elset=Set-1, generate
   1,  303,    1
** Section: SolidSection
*Solid Section, elset=Set-1, material=Steel
1.,
*End Instance
**  
*Instance, name=Hinge-solid-1, part=Hinge-solid
        0.05,  6.93889390390723e-18,         0.04
        0.05,  6.93889390390723e-18,         0.04,         0.05,           1., 0.0399999999999999,         180.
*Node
      1, 0.00499999989, -0.0237499997, 0.0399999991
      2, 0.0250000004, -0.0237499997, 0.0399999991
      3, 0.0250000004, 0.0162499994, 0.0399999991
      4, 0.00499999989, 0.0162499994, 0.0399999991
      5, 0.0334852822, -0.0122352811, 0.0399999991
      6, 0.0334852822, -0.0122352811, 0.0199999996
      7, 0.00499999989, 0.0162499994, 0.0199999996
      8, 0.0250000004, 0.0162499994, 0.0199999996
      9, 0.0250000004, -0.0237499997, 0.0199999996
     10, 0.00499999989, -0.0237499997, 0.0199999996
     11, 0.00499999989, -0.0237499997,           0.
     12, 0.00499999989, 0.0162499994,           0.
     13, -0.0350000001, -0.0237499997, 0.0399999991
     14, -0.0350000001, 0.0162499994, 0.0399999991
     15, -0.0350000001, 0.0162499994,           0.
     16, -0.0350000001, -0.0237499997,           0.
     17, 0.0359012038, -0.00876635034, 0.0399999991
     18,  0.036973618, -0.00454528583, 0.0399999991
     19, 0.0364268571,  -8.57212362e-05, 0.0399999991
     20, 0.0340707079, 0.00410635304, 0.0399999991
** ... 226 like lines cut
*Element, type=C3D8R
 1, 101,  96,  24,  25, 205, 200, 127, 128
 2, 101,  36,  35,  96, 205, 138, 137, 200
 3, 101,  37,   1,  36, 205, 118,  39, 138
 4, 101,  97,   2,  37, 205, 201,  38, 118
 5, 101,  25,  26,  97, 205, 128, 129, 201
 6, 102,  96,  35,  34, 206, 200, 137, 136
 7, 102,  23,  24,  96, 206, 126, 127, 200
 8, 102,  98,  22,  23, 206, 202, 125, 126
 9, 102,  33,   3,  98, 206, 139,  40, 202
10, 102,  34,   4,  33, 206, 136,  41, 139
11,   2,  97,  99,  27,  38, 201, 203, 135
12,  97,  26,   5,  99, 201, 129, 119, 203
13,  21, 103, 100,  20, 124, 207, 204, 123
14, 103,  32,  31, 100, 207, 130, 131, 204
15,  22,  98, 103,  21, 125, 202, 207, 124
16,  98,   3,  32, 103, 202,  40, 130, 207
17,  30, 104, 100,  31, 132, 208, 204, 131
18, 104,  19,  20, 100, 208, 122, 123, 204
19,  29, 105, 104,  30, 133, 209, 208, 132
20, 105,  18,  19, 104, 209, 121, 122, 208
** ... 108 like lines cut
*Nset, nset=Set-1, generate
   1,  246,    1
*Elset, elset=Set-1, generate
   1,  128,    1
** Section: SolidSection
*Solid Section, elset=Set-1, material=Steel
1.,
*End Instance
**  
*Instance, name=Pin-1, part=Pin
       0.025, -0.00374999999999999,         0.02
       0.025, -0.00374999999999999,         0.02,        1.025, -0.00374999999999999, 0.0200000000000001,          90.
*Node
      1, 0.0120000001, 0.0299999993,           0.
*Nset, nset=Pin-1-RefPt_, internal
1, 
*Surface, type=REVOLUTION, name=CP-4-Pin-1
START,        0.012,         0.03
 LINE,        0.012,        -0.03
*Rigid Body, ref node=Pin-1-RefPt_, analytical surface=CP-4-Pin-1
*End Instance
**  
*Nset, nset=Monitor, instance=Hinge-solid-1
 12,
*Nset, nset=Set-2, instance=Hinge-hole-1
  15,  16,  17,  18,  95,  96,  97,  98,  99, 100, 101, 102, 103, 104, 105, 106
 107, 108, 109, 110, 111, 112, 113, 114, 205, 206, 207, 208, 209, 210, 211, 212
 213, 214, 215, 216, 217, 218, 219, 220, 221, 222, 223, 224, 225, 226, 227, 228
*Elset, elset=Set-2, instance=Hinge-hole-1, generate
 197,  231,    1
*Nset, nset=Set-3, instance=Pin-1
 1,
*Nset, nset=Set-4, instance=Hinge-solid-1
 12,
*Elset, elset=_CP-2-Hinge-hole-1_S4, internal, instance=Hinge-hole-1
 244, 267, 280, 303
*Elset, elset=_CP-2-Hinge-hole-1_S5, internal, instance=Hinge-hole-1
 245, 246, 247, 261, 281, 282, 283, 297
*Elset, elset=_CP-2-Hinge-hole-1_S2, internal, instance=Hinge-hole-1, generate
 43,  56,   1
*Surface, type=ELEMENT, name=CP-2-Hinge-hole-1
_CP-2-Hinge-hole-1_S4, S4
_CP-2-Hinge-hole-1_S5, S5
_CP-2-Hinge-hole-1_S2, S2
*Elset, elset=_CP-2-Hinge-solid-1_S2, internal, instance=Hinge-solid-1, generate
 25,  48,   1
*Surface, type=ELEMENT, name=CP-2-Hinge-solid-1
_CP-2-Hinge-solid-1_S2, S2
*Elset, elset=_CP-4-Hinge-hole-1_S1, internal, instance=Hinge-hole-1, generate
 232,  267,    1
*Elset, elset=_CP-4-Hinge-hole-1_S5, internal, instance=Hinge-hole-1
  1,  2, 12, 15, 16, 26, 29, 30, 40, 43, 44, 54
*Elset, elset=_CP-4-Hinge-hole-1_S4, internal, instance=Hinge-hole-1
  8,  9, 11, 22, 23, 25, 36, 37, 39, 50, 51, 53
*Surface, type=ELEMENT, name=CP-4-Hinge-hole-1
_CP-4-Hinge-hole-1_S1, S1
_CP-4-Hinge-hole-1_S5, S5
_CP-4-Hinge-hole-1_S4, S4
*Elset, elset=_CP-5-Hinge-solid-1_S5, internal, instance=Hinge-solid-1
  1,  8, 25, 32
*Elset, elset=_CP-5-Hinge-solid-1_S4, internal, instance=Hinge-solid-1
  5,  7, 12, 18, 20, 22, 24, 29, 31, 36, 42, 44, 46, 48
*Elset, elset=_CP-5-Hinge-solid-1_S6, internal, instance=Hinge-solid-1
 13, 15, 37, 39
*Surface, type=ELEMENT, name=CP-5-Hinge-solid-1
_CP-5-Hinge-solid-1_S5, S5
_CP-5-Hinge-solid-1_S4, S4
_CP-5-Hinge-solid-1_S6, S6
*Elset, elset=_Flange-h_S4, internal, instance=Hinge-hole-1
 244, 267, 280, 303
*Elset, elset=_Flange-h_S5, internal, instance=Hinge-hole-1
 245, 246, 247, 261, 281, 282, 283, 297
*Elset, elset=_Flange-h_S2, internal, instance=Hinge-hole-1, generate
 43,  56,   1
*Surface, type=ELEMENT, name=Flange-h
_Flange-h_S4, S4
_Flange-h_S5, S5
_Flange-h_S2, S2
*Elset, elset=_Flange-s_S2, internal, instance=Hinge-solid-1, generate
 25,  48,   1
*Surface, type=ELEMENT, name=Flange-s
_Flange-s_S2, S2
*Elset, elset=_Inside-h_S1, internal, instance=Hinge-hole-1, generate
 232,  267,    1
*Elset, elset=_Inside-h_S5, internal, instance=Hinge-hole-1
  1,  2, 12, 15, 16, 26, 29, 30, 40, 43, 44, 54
*Elset, elset=_Inside-h_S4, internal, instance=Hinge-hole-1
  8,  9, 11, 22, 23, 25, 36, 37, 39, 50, 51, 53
*Surface, type=ELEMENT, name=Inside-h
_Inside-h_S1, S1
_Inside-h_S5, S5
_Inside-h_S4, S4
*Elset, elset=_Inside-s_S5, internal, instance=Hinge-solid-1
  1,  8, 25, 32
*Elset, elset=_Inside-s_S4, internal, instance=Hinge-solid-1
  5,  7, 12, 18, 20, 22, 24, 29, 31, 36, 42, 44, 46, 48
*Elset, elset=_Inside-s_S6, internal, instance=Hinge-solid-1
 13, 15, 37, 39
*Surface, type=ELEMENT, name=Inside-s
_Inside-s_S5, S5
_Inside-s_S4, S4
_Inside-s_S6, S6
*Elset, elset=_Surf-12_S2, internal, instance=Hinge-solid-1, generate
 113,  128,    1
*Surface, type=ELEMENT, name=Surf-12
_Surf-12_S2, S2
*End Assembly
** 
** MATERIALS
** 
*Material, name=Steel
*Elastic
 2.09e+11, 0.3
** 
** INTERACTION PROPERTIES
** 
*Surface Interaction, name=NoFric
1.,
*Friction
0.,
** 
** BOUNDARY CONDITIONS
** 
** Name: Constrain Type: Displacement/Rotation
*Boundary
Set-4, 1, 1
Set-4, 2, 2
Set-4, 3, 3
** Name: Fixed Type: Displacement/Rotation
*Boundary
Set-2, 1, 1
Set-2, 2, 2
Set-2, 3, 3
** Name: NoSlip Type: Displacement/Rotation
*Boundary
Set-3, 1, 1
Set-3, 2, 2
Set-3, 3, 3
Set-3, 4, 4
Set-3, 5, 5
Set-3, 6, 6
** 
** INTERACTIONS
** 
** Interaction: Flanges
*Contact Pair, interaction=NoFric
CP-2-Hinge-solid-1, CP-2-Hinge-hole-1
** Interaction: HinePin-hole
*Contact Pair, interaction=NoFric
Inside-h, Pin-1.CP-4-Pin-1
** Interaction: HingePin-Solid
*Contact Pair, interaction=NoFric
Pin-1.CP-4-Pin-1, CP-5-Hinge-solid-1
** Interaction: HingePin-hole
*Contact Pair, interaction=NoFric
CP-4-Hinge-hole-1, Pin-1.CP-4-Pin-1
** Interaction: HingePin_Solid
*Contact Pair, interaction=NoFric
Inside-s, Pin-1.CP-4-Pin-1
** Interaction: flanges1
*Contact Pair, interaction=NoFric
Flange-s, Flange-h
** ----------------------------------------------------------------
** 
** STEP: Load
** 
*Step, name=Load, nlgeom=NO
Apply load
*Static
0.1, 1., 1e-05, 1.
** 
** BOUNDARY CONDITIONS
** 
** Name: Constrain Type: Displacement/Rotation
*Boundary, op=NEW
Set-4, 2, 2
Set-4, 3, 3
** Name: Fixed Type: Displacement/Rotation
*Boundary, op=NEW
Set-2, 1, 1
Set-2, 2, 2
Set-2, 3, 3
** Name: NoSlip Type: Displacement/Rotation
*Boundary, op=NEW
Set-3, 2, 2
Set-3, 3, 3
Set-3, 4, 4
Set-3, 6, 6
** 
** LOADS
** 
** Name: Pressure   Type: Pressure
*Dsload
Surf-12, P, -1e+06
** 
** OUTPUT REQUESTS
** 
*Restart, write, frequency=0
*Monitor, dof=1, node=Monitor, frequency=1
** 
** FIELD OUTPUT: F-Output-1
** 
*Output, field
*Node Output, exterior
CF, RF, U
*Element Output, exterior, directions=YES
LE, PE, PEEQ, PEMAG, S
*Contact Output
CSTRESS, 
*Output, history, frequency=0
*End Step
** ----------------------------------------------------------------
** 
** STEP: Contact
** 
*Step, name=Contact, nlgeom=NO
Establish contact
*Static
0.1, 1., 1e-05, 1.
** 
** OUTPUT REQUESTS
** 
*Restart, write, frequency=0
** 
** FIELD OUTPUT: F-Output-1
** 
*Output, field
*Node Output, exterior
CF, RF, U
*Element Output, exterior, directions=YES
LE, PE, PEEQ, PEMAG, S
*Contact Output
CSTRESS, 
** 
** HISTORY OUTPUT: H-Output-1
** 
*Output, history, variable=PRESELECT
*End Step
